         432
   6.00000000000000        6.00000000000000        6.00000000000000     
H  0.5000000000000000  0.5000000000000000  0.5000000000000000
H  1.0000000000000000  1.0000000000000000  0.0000000000000000
H  0.5000000000000000  0.5000000000000000  1.5000000000000000
H  1.0000000000000000  1.0000000000000000  1.0000000000000000
H  0.5000000000000000  0.5000000000000000  2.5000000000000000
H  1.0000000000000000  1.0000000000000000  2.0000000000000000
H  0.5000000000000000  0.5000000000000000  3.5000000000000000
H  1.0000000000000000  1.0000000000000000  3.0000000000000000
H  0.5000000000000000  0.5000000000000000  4.5000000000000000
H  1.0000000000000000  1.0000000000000000  4.0000000000000000
H  0.5000000000000000  0.5000000000000000  5.5000000000000000
H  1.0000000000000000  1.0000000000000000  5.0000000000000000
H  0.5000000000000000  1.5000000000000000  0.5000000000000000
H  1.0000000000000000  2.0000000000000000  0.0000000000000000
H  0.5000000000000000  1.5000000000000000  1.5000000000000000
H  1.0000000000000000  2.0000000000000000  1.0000000000000000
H  0.5000000000000000  1.5000000000000000  2.5000000000000000
H  1.0000000000000000  2.0000000000000000  2.0000000000000000
H  0.5000000000000000  1.5000000000000000  3.5000000000000000
H  1.0000000000000000  2.0000000000000000  3.0000000000000000
H  0.5000000000000000  1.5000000000000000  4.5000000000000000
H  1.0000000000000000  2.0000000000000000  4.0000000000000000
H  0.5000000000000000  1.5000000000000000  5.5000000000000000
H  1.0000000000000000  2.0000000000000000  5.0000000000000000
H  0.5000000000000000  2.5000000000000000  0.5000000000000000
H  1.0000000000000000  3.0000000000000000  0.0000000000000000
H  0.5000000000000000  2.5000000000000000  1.5000000000000000
H  1.0000000000000000  3.0000000000000000  1.0000000000000000
H  0.5000000000000000  2.5000000000000000  2.5000000000000000
H  1.0000000000000000  3.0000000000000000  2.0000000000000000
H  0.5000000000000000  2.5000000000000000  3.5000000000000000
H  1.0000000000000000  3.0000000000000000  3.0000000000000000
H  0.5000000000000000  2.5000000000000000  4.5000000000000000
H  1.0000000000000000  3.0000000000000000  4.0000000000000000
H  0.5000000000000000  2.5000000000000000  5.5000000000000000
H  1.0000000000000000  3.0000000000000000  5.0000000000000000
H  0.5000000000000000  3.5000000000000000  0.5000000000000000
H  1.0000000000000000  4.0000000000000000  0.0000000000000000
H  0.5000000000000000  3.5000000000000000  1.5000000000000000
H  1.0000000000000000  4.0000000000000000  1.0000000000000000
H  0.5000000000000000  3.5000000000000000  2.5000000000000000
H  1.0000000000000000  4.0000000000000000  2.0000000000000000
H  0.5000000000000000  3.5000000000000000  3.5000000000000000
H  1.0000000000000000  4.0000000000000000  3.0000000000000000
H  0.5000000000000000  3.5000000000000000  4.5000000000000000
H  1.0000000000000000  4.0000000000000000  4.0000000000000000
H  0.5000000000000000  3.5000000000000000  5.5000000000000000
H  1.0000000000000000  4.0000000000000000  5.0000000000000000
H  0.5000000000000000  4.5000000000000000  0.5000000000000000
H  1.0000000000000000  5.0000000000000000  0.0000000000000000
H  0.5000000000000000  4.5000000000000000  1.5000000000000000
H  1.0000000000000000  5.0000000000000000  1.0000000000000000
H  0.5000000000000000  4.5000000000000000  2.5000000000000000
H  1.0000000000000000  5.0000000000000000  2.0000000000000000
H  0.5000000000000000  4.5000000000000000  3.5000000000000000
H  1.0000000000000000  5.0000000000000000  3.0000000000000000
H  0.5000000000000000  4.5000000000000000  4.5000000000000000
H  1.0000000000000000  5.0000000000000000  4.0000000000000000
H  0.5000000000000000  4.5000000000000000  5.5000000000000000
H  1.0000000000000000  5.0000000000000000  5.0000000000000000
H  0.5000000000000000  5.5000000000000000  0.5000000000000000
H  1.0000000000000000  6.0000000000000000  0.0000000000000000
H  0.5000000000000000  5.5000000000000000  1.5000000000000000
H  1.0000000000000000  6.0000000000000000  1.0000000000000000
H  0.5000000000000000  5.5000000000000000  2.5000000000000000
H  1.0000000000000000  6.0000000000000000  2.0000000000000000
H  0.5000000000000000  5.5000000000000000  3.5000000000000000
H  1.0000000000000000  6.0000000000000000  3.0000000000000000
H  0.5000000000000000  5.5000000000000000  4.5000000000000000
H  1.0000000000000000  6.0000000000000000  4.0000000000000000
H  0.5000000000000000  5.5000000000000000  5.5000000000000000
H  1.0000000000000000  6.0000000000000000  5.0000000000000000
H  1.5000000000000000  0.5000000000000000  0.5000000000000000
H  2.0000000000000000  1.0000000000000000  0.0000000000000000
H  1.5000000000000000  0.5000000000000000  1.5000000000000000
H  2.0000000000000000  1.0000000000000000  1.0000000000000000
H  1.5000000000000000  0.5000000000000000  2.5000000000000000
H  2.0000000000000000  1.0000000000000000  2.0000000000000000
H  1.5000000000000000  0.5000000000000000  3.5000000000000000
H  2.0000000000000000  1.0000000000000000  3.0000000000000000
H  1.5000000000000000  0.5000000000000000  4.5000000000000000
H  2.0000000000000000  1.0000000000000000  4.0000000000000000
H  1.5000000000000000  0.5000000000000000  5.5000000000000000
H  2.0000000000000000  1.0000000000000000  5.0000000000000000
H  1.5000000000000000  1.5000000000000000  0.5000000000000000
H  2.0000000000000000  2.0000000000000000  0.0000000000000000
H  1.5000000000000000  1.5000000000000000  1.5000000000000000
H  2.0000000000000000  2.0000000000000000  1.0000000000000000
H  1.5000000000000000  1.5000000000000000  2.5000000000000000
H  2.0000000000000000  2.0000000000000000  2.0000000000000000
H  1.5000000000000000  1.5000000000000000  3.5000000000000000
H  2.0000000000000000  2.0000000000000000  3.0000000000000000
H  1.5000000000000000  1.5000000000000000  4.5000000000000000
H  2.0000000000000000  2.0000000000000000  4.0000000000000000
H  1.5000000000000000  1.5000000000000000  5.5000000000000000
H  2.0000000000000000  2.0000000000000000  5.0000000000000000
H  1.5000000000000000  2.5000000000000000  0.5000000000000000
H  2.0000000000000000  3.0000000000000000  0.0000000000000000
H  1.5000000000000000  2.5000000000000000  1.5000000000000000
H  2.0000000000000000  3.0000000000000000  1.0000000000000000
H  1.5000000000000000  2.5000000000000000  2.5000000000000000
H  2.0000000000000000  3.0000000000000000  2.0000000000000000
H  1.5000000000000000  2.5000000000000000  3.5000000000000000
H  2.0000000000000000  3.0000000000000000  3.0000000000000000
H  1.5000000000000000  2.5000000000000000  4.5000000000000000
H  2.0000000000000000  3.0000000000000000  4.0000000000000000
H  1.5000000000000000  2.5000000000000000  5.5000000000000000
H  2.0000000000000000  3.0000000000000000  5.0000000000000000
H  1.5000000000000000  3.5000000000000000  0.5000000000000000
H  2.0000000000000000  4.0000000000000000  0.0000000000000000
H  1.5000000000000000  3.5000000000000000  1.5000000000000000
H  2.0000000000000000  4.0000000000000000  1.0000000000000000
H  1.5000000000000000  3.5000000000000000  2.5000000000000000
H  2.0000000000000000  4.0000000000000000  2.0000000000000000
H  1.5000000000000000  3.5000000000000000  3.5000000000000000
H  2.0000000000000000  4.0000000000000000  3.0000000000000000
H  1.5000000000000000  3.5000000000000000  4.5000000000000000
H  2.0000000000000000  4.0000000000000000  4.0000000000000000
H  1.5000000000000000  3.5000000000000000  5.5000000000000000
H  2.0000000000000000  4.0000000000000000  5.0000000000000000
H  1.5000000000000000  4.5000000000000000  0.5000000000000000
H  2.0000000000000000  5.0000000000000000  0.0000000000000000
H  1.5000000000000000  4.5000000000000000  1.5000000000000000
H  2.0000000000000000  5.0000000000000000  1.0000000000000000
H  1.5000000000000000  4.5000000000000000  2.5000000000000000
H  2.0000000000000000  5.0000000000000000  2.0000000000000000
H  1.5000000000000000  4.5000000000000000  3.5000000000000000
H  2.0000000000000000  5.0000000000000000  3.0000000000000000
H  1.5000000000000000  4.5000000000000000  4.5000000000000000
H  2.0000000000000000  5.0000000000000000  4.0000000000000000
H  1.5000000000000000  4.5000000000000000  5.5000000000000000
H  2.0000000000000000  5.0000000000000000  5.0000000000000000
H  1.5000000000000000  5.5000000000000000  0.5000000000000000
H  2.0000000000000000  6.0000000000000000  0.0000000000000000
H  1.5000000000000000  5.5000000000000000  1.5000000000000000
H  2.0000000000000000  6.0000000000000000  1.0000000000000000
H  1.5000000000000000  5.5000000000000000  2.5000000000000000
H  2.0000000000000000  6.0000000000000000  2.0000000000000000
H  1.5000000000000000  5.5000000000000000  3.5000000000000000
H  2.0000000000000000  6.0000000000000000  3.0000000000000000
H  1.5000000000000000  5.5000000000000000  4.5000000000000000
H  2.0000000000000000  6.0000000000000000  4.0000000000000000
H  1.5000000000000000  5.5000000000000000  5.5000000000000000
H  2.0000000000000000  6.0000000000000000  5.0000000000000000
H  2.5000000000000000  0.5000000000000000  0.5000000000000000
H  3.0000000000000000  1.0000000000000000  0.0000000000000000
H  2.5000000000000000  0.5000000000000000  1.5000000000000000
H  3.0000000000000000  1.0000000000000000  1.0000000000000000
H  2.5000000000000000  0.5000000000000000  2.5000000000000000
H  3.0000000000000000  1.0000000000000000  2.0000000000000000
H  2.5000000000000000  0.5000000000000000  3.5000000000000000
H  3.0000000000000000  1.0000000000000000  3.0000000000000000
H  2.5000000000000000  0.5000000000000000  4.5000000000000000
H  3.0000000000000000  1.0000000000000000  4.0000000000000000
H  2.5000000000000000  0.5000000000000000  5.5000000000000000
H  3.0000000000000000  1.0000000000000000  5.0000000000000000
H  2.5000000000000000  1.5000000000000000  0.5000000000000000
H  3.0000000000000000  2.0000000000000000  0.0000000000000000
H  2.5000000000000000  1.5000000000000000  1.5000000000000000
H  3.0000000000000000  2.0000000000000000  1.0000000000000000
H  2.5000000000000000  1.5000000000000000  2.5000000000000000
H  3.0000000000000000  2.0000000000000000  2.0000000000000000
H  2.5000000000000000  1.5000000000000000  3.5000000000000000
H  3.0000000000000000  2.0000000000000000  3.0000000000000000
H  2.5000000000000000  1.5000000000000000  4.5000000000000000
H  3.0000000000000000  2.0000000000000000  4.0000000000000000
H  2.5000000000000000  1.5000000000000000  5.5000000000000000
H  3.0000000000000000  2.0000000000000000  5.0000000000000000
H  2.5000000000000000  2.5000000000000000  0.5000000000000000
H  3.0000000000000000  3.0000000000000000  0.0000000000000000
H  2.5000000000000000  2.5000000000000000  1.5000000000000000
H  3.0000000000000000  3.0000000000000000  1.0000000000000000
H  2.5000000000000000  2.5000000000000000  2.5000000000000000
H  3.0000000000000000  3.0000000000000000  2.0000000000000000
H  2.5000000000000000  2.5000000000000000  3.5000000000000000
H  3.0000000000000000  3.0000000000000000  3.0000000000000000
H  2.5000000000000000  2.5000000000000000  4.5000000000000000
H  3.0000000000000000  3.0000000000000000  4.0000000000000000
H  2.5000000000000000  2.5000000000000000  5.5000000000000000
H  3.0000000000000000  3.0000000000000000  5.0000000000000000
H  2.5000000000000000  3.5000000000000000  0.5000000000000000
H  3.0000000000000000  4.0000000000000000  0.0000000000000000
H  2.5000000000000000  3.5000000000000000  1.5000000000000000
H  3.0000000000000000  4.0000000000000000  1.0000000000000000
H  2.5000000000000000  3.5000000000000000  2.5000000000000000
H  3.0000000000000000  4.0000000000000000  2.0000000000000000
H  2.5000000000000000  3.5000000000000000  3.5000000000000000
H  3.0000000000000000  4.0000000000000000  3.0000000000000000
H  2.5000000000000000  3.5000000000000000  4.5000000000000000
H  3.0000000000000000  4.0000000000000000  4.0000000000000000
H  2.5000000000000000  3.5000000000000000  5.5000000000000000
H  3.0000000000000000  4.0000000000000000  5.0000000000000000
H  2.5000000000000000  4.5000000000000000  0.5000000000000000
H  3.0000000000000000  5.0000000000000000  0.0000000000000000
H  2.5000000000000000  4.5000000000000000  1.5000000000000000
H  3.0000000000000000  5.0000000000000000  1.0000000000000000
H  2.5000000000000000  4.5000000000000000  2.5000000000000000
H  3.0000000000000000  5.0000000000000000  2.0000000000000000
H  2.5000000000000000  4.5000000000000000  3.5000000000000000
H  3.0000000000000000  5.0000000000000000  3.0000000000000000
H  2.5000000000000000  4.5000000000000000  4.5000000000000000
H  3.0000000000000000  5.0000000000000000  4.0000000000000000
H  2.5000000000000000  4.5000000000000000  5.5000000000000000
H  3.0000000000000000  5.0000000000000000  5.0000000000000000
H  2.5000000000000000  5.5000000000000000  0.5000000000000000
H  3.0000000000000000  6.0000000000000000  0.0000000000000000
H  2.5000000000000000  5.5000000000000000  1.5000000000000000
H  3.0000000000000000  6.0000000000000000  1.0000000000000000
H  2.5000000000000000  5.5000000000000000  2.5000000000000000
H  3.0000000000000000  6.0000000000000000  2.0000000000000000
H  2.5000000000000000  5.5000000000000000  3.5000000000000000
H  3.0000000000000000  6.0000000000000000  3.0000000000000000
H  2.5000000000000000  5.5000000000000000  4.5000000000000000
H  3.0000000000000000  6.0000000000000000  4.0000000000000000
H  2.5000000000000000  5.5000000000000000  5.5000000000000000
H  3.0000000000000000  6.0000000000000000  5.0000000000000000
H  3.5000000000000000  0.5000000000000000  0.5000000000000000
H  4.0000000000000000  1.0000000000000000  0.0000000000000000
H  3.5000000000000000  0.5000000000000000  1.5000000000000000
H  4.0000000000000000  1.0000000000000000  1.0000000000000000
H  3.5000000000000000  0.5000000000000000  2.5000000000000000
H  4.0000000000000000  1.0000000000000000  2.0000000000000000
H  3.5000000000000000  0.5000000000000000  3.5000000000000000
H  4.0000000000000000  1.0000000000000000  3.0000000000000000
H  3.5000000000000000  0.5000000000000000  4.5000000000000000
H  4.0000000000000000  1.0000000000000000  4.0000000000000000
H  3.5000000000000000  0.5000000000000000  5.5000000000000000
H  4.0000000000000000  1.0000000000000000  5.0000000000000000
H  3.5000000000000000  1.5000000000000000  0.5000000000000000
H  4.0000000000000000  2.0000000000000000  0.0000000000000000
H  3.5000000000000000  1.5000000000000000  1.5000000000000000
H  4.0000000000000000  2.0000000000000000  1.0000000000000000
H  3.5000000000000000  1.5000000000000000  2.5000000000000000
H  4.0000000000000000  2.0000000000000000  2.0000000000000000
H  3.5000000000000000  1.5000000000000000  3.5000000000000000
H  4.0000000000000000  2.0000000000000000  3.0000000000000000
H  3.5000000000000000  1.5000000000000000  4.5000000000000000
H  4.0000000000000000  2.0000000000000000  4.0000000000000000
H  3.5000000000000000  1.5000000000000000  5.5000000000000000
H  4.0000000000000000  2.0000000000000000  5.0000000000000000
H  3.5000000000000000  2.5000000000000000  0.5000000000000000
H  4.0000000000000000  3.0000000000000000  0.0000000000000000
H  3.5000000000000000  2.5000000000000000  1.5000000000000000
H  4.0000000000000000  3.0000000000000000  1.0000000000000000
H  3.5000000000000000  2.5000000000000000  2.5000000000000000
H  4.0000000000000000  3.0000000000000000  2.0000000000000000
H  3.5000000000000000  2.5000000000000000  3.5000000000000000
H  4.0000000000000000  3.0000000000000000  3.0000000000000000
H  3.5000000000000000  2.5000000000000000  4.5000000000000000
H  4.0000000000000000  3.0000000000000000  4.0000000000000000
H  3.5000000000000000  2.5000000000000000  5.5000000000000000
H  4.0000000000000000  3.0000000000000000  5.0000000000000000
H  3.5000000000000000  3.5000000000000000  0.5000000000000000
H  4.0000000000000000  4.0000000000000000  0.0000000000000000
H  3.5000000000000000  3.5000000000000000  1.5000000000000000
H  4.0000000000000000  4.0000000000000000  1.0000000000000000
H  3.5000000000000000  3.5000000000000000  2.5000000000000000
H  4.0000000000000000  4.0000000000000000  2.0000000000000000
H  3.5000000000000000  3.5000000000000000  3.5000000000000000
H  4.0000000000000000  4.0000000000000000  3.0000000000000000
H  3.5000000000000000  3.5000000000000000  4.5000000000000000
H  4.0000000000000000  4.0000000000000000  4.0000000000000000
H  3.5000000000000000  3.5000000000000000  5.5000000000000000
H  4.0000000000000000  4.0000000000000000  5.0000000000000000
H  3.5000000000000000  4.5000000000000000  0.5000000000000000
H  4.0000000000000000  5.0000000000000000  0.0000000000000000
H  3.5000000000000000  4.5000000000000000  1.5000000000000000
H  4.0000000000000000  5.0000000000000000  1.0000000000000000
H  3.5000000000000000  4.5000000000000000  2.5000000000000000
H  4.0000000000000000  5.0000000000000000  2.0000000000000000
H  3.5000000000000000  4.5000000000000000  3.5000000000000000
H  4.0000000000000000  5.0000000000000000  3.0000000000000000
H  3.5000000000000000  4.5000000000000000  4.5000000000000000
H  4.0000000000000000  5.0000000000000000  4.0000000000000000
H  3.5000000000000000  4.5000000000000000  5.5000000000000000
H  4.0000000000000000  5.0000000000000000  5.0000000000000000
H  3.5000000000000000  5.5000000000000000  0.5000000000000000
H  4.0000000000000000  6.0000000000000000  0.0000000000000000
H  3.5000000000000000  5.5000000000000000  1.5000000000000000
H  4.0000000000000000  6.0000000000000000  1.0000000000000000
H  3.5000000000000000  5.5000000000000000  2.5000000000000000
H  4.0000000000000000  6.0000000000000000  2.0000000000000000
H  3.5000000000000000  5.5000000000000000  3.5000000000000000
H  4.0000000000000000  6.0000000000000000  3.0000000000000000
H  3.5000000000000000  5.5000000000000000  4.5000000000000000
H  4.0000000000000000  6.0000000000000000  4.0000000000000000
H  3.5000000000000000  5.5000000000000000  5.5000000000000000
H  4.0000000000000000  6.0000000000000000  5.0000000000000000
H  4.5000000000000000  0.5000000000000000  0.5000000000000000
H  5.0000000000000000  1.0000000000000000  0.0000000000000000
H  4.5000000000000000  0.5000000000000000  1.5000000000000000
H  5.0000000000000000  1.0000000000000000  1.0000000000000000
H  4.5000000000000000  0.5000000000000000  2.5000000000000000
H  5.0000000000000000  1.0000000000000000  2.0000000000000000
H  4.5000000000000000  0.5000000000000000  3.5000000000000000
H  5.0000000000000000  1.0000000000000000  3.0000000000000000
H  4.5000000000000000  0.5000000000000000  4.5000000000000000
H  5.0000000000000000  1.0000000000000000  4.0000000000000000
H  4.5000000000000000  0.5000000000000000  5.5000000000000000
H  5.0000000000000000  1.0000000000000000  5.0000000000000000
H  4.5000000000000000  1.5000000000000000  0.5000000000000000
H  5.0000000000000000  2.0000000000000000  0.0000000000000000
H  4.5000000000000000  1.5000000000000000  1.5000000000000000
H  5.0000000000000000  2.0000000000000000  1.0000000000000000
H  4.5000000000000000  1.5000000000000000  2.5000000000000000
H  5.0000000000000000  2.0000000000000000  2.0000000000000000
H  4.5000000000000000  1.5000000000000000  3.5000000000000000
H  5.0000000000000000  2.0000000000000000  3.0000000000000000
H  4.5000000000000000  1.5000000000000000  4.5000000000000000
H  5.0000000000000000  2.0000000000000000  4.0000000000000000
H  4.5000000000000000  1.5000000000000000  5.5000000000000000
H  5.0000000000000000  2.0000000000000000  5.0000000000000000
H  4.5000000000000000  2.5000000000000000  0.5000000000000000
H  5.0000000000000000  3.0000000000000000  0.0000000000000000
H  4.5000000000000000  2.5000000000000000  1.5000000000000000
H  5.0000000000000000  3.0000000000000000  1.0000000000000000
H  4.5000000000000000  2.5000000000000000  2.5000000000000000
H  5.0000000000000000  3.0000000000000000  2.0000000000000000
H  4.5000000000000000  2.5000000000000000  3.5000000000000000
H  5.0000000000000000  3.0000000000000000  3.0000000000000000
H  4.5000000000000000  2.5000000000000000  4.5000000000000000
H  5.0000000000000000  3.0000000000000000  4.0000000000000000
H  4.5000000000000000  2.5000000000000000  5.5000000000000000
H  5.0000000000000000  3.0000000000000000  5.0000000000000000
H  4.5000000000000000  3.5000000000000000  0.5000000000000000
H  5.0000000000000000  4.0000000000000000  0.0000000000000000
H  4.5000000000000000  3.5000000000000000  1.5000000000000000
H  5.0000000000000000  4.0000000000000000  1.0000000000000000
H  4.5000000000000000  3.5000000000000000  2.5000000000000000
H  5.0000000000000000  4.0000000000000000  2.0000000000000000
H  4.5000000000000000  3.5000000000000000  3.5000000000000000
H  5.0000000000000000  4.0000000000000000  3.0000000000000000
H  4.5000000000000000  3.5000000000000000  4.5000000000000000
H  5.0000000000000000  4.0000000000000000  4.0000000000000000
H  4.5000000000000000  3.5000000000000000  5.5000000000000000
H  5.0000000000000000  4.0000000000000000  5.0000000000000000
H  4.5000000000000000  4.5000000000000000  0.5000000000000000
H  5.0000000000000000  5.0000000000000000  0.0000000000000000
H  4.5000000000000000  4.5000000000000000  1.5000000000000000
H  5.0000000000000000  5.0000000000000000  1.0000000000000000
H  4.5000000000000000  4.5000000000000000  2.5000000000000000
H  5.0000000000000000  5.0000000000000000  2.0000000000000000
H  4.5000000000000000  4.5000000000000000  3.5000000000000000
H  5.0000000000000000  5.0000000000000000  3.0000000000000000
H  4.5000000000000000  4.5000000000000000  4.5000000000000000
H  5.0000000000000000  5.0000000000000000  4.0000000000000000
H  4.5000000000000000  4.5000000000000000  5.5000000000000000
H  5.0000000000000000  5.0000000000000000  5.0000000000000000
H  4.5000000000000000  5.5000000000000000  0.5000000000000000
H  5.0000000000000000  6.0000000000000000  0.0000000000000000
H  4.5000000000000000  5.5000000000000000  1.5000000000000000
H  5.0000000000000000  6.0000000000000000  1.0000000000000000
H  4.5000000000000000  5.5000000000000000  2.5000000000000000
H  5.0000000000000000  6.0000000000000000  2.0000000000000000
H  4.5000000000000000  5.5000000000000000  3.5000000000000000
H  5.0000000000000000  6.0000000000000000  3.0000000000000000
H  4.5000000000000000  5.5000000000000000  4.5000000000000000
H  5.0000000000000000  6.0000000000000000  4.0000000000000000
H  4.5000000000000000  5.5000000000000000  5.5000000000000000
H  5.0000000000000000  6.0000000000000000  5.0000000000000000
H  5.5000000000000000  0.5000000000000000  0.5000000000000000
H  6.0000000000000000  1.0000000000000000  0.0000000000000000
H  5.5000000000000000  0.5000000000000000  1.5000000000000000
H  6.0000000000000000  1.0000000000000000  1.0000000000000000
H  5.5000000000000000  0.5000000000000000  2.5000000000000000
H  6.0000000000000000  1.0000000000000000  2.0000000000000000
H  5.5000000000000000  0.5000000000000000  3.5000000000000000
H  6.0000000000000000  1.0000000000000000  3.0000000000000000
H  5.5000000000000000  0.5000000000000000  4.5000000000000000
H  6.0000000000000000  1.0000000000000000  4.0000000000000000
H  5.5000000000000000  0.5000000000000000  5.5000000000000000
H  6.0000000000000000  1.0000000000000000  5.0000000000000000
H  5.5000000000000000  1.5000000000000000  0.5000000000000000
H  6.0000000000000000  2.0000000000000000  0.0000000000000000
H  5.5000000000000000  1.5000000000000000  1.5000000000000000
H  6.0000000000000000  2.0000000000000000  1.0000000000000000
H  5.5000000000000000  1.5000000000000000  2.5000000000000000
H  6.0000000000000000  2.0000000000000000  2.0000000000000000
H  5.5000000000000000  1.5000000000000000  3.5000000000000000
H  6.0000000000000000  2.0000000000000000  3.0000000000000000
H  5.5000000000000000  1.5000000000000000  4.5000000000000000
H  6.0000000000000000  2.0000000000000000  4.0000000000000000
H  5.5000000000000000  1.5000000000000000  5.5000000000000000
H  6.0000000000000000  2.0000000000000000  5.0000000000000000
H  5.5000000000000000  2.5000000000000000  0.5000000000000000
H  6.0000000000000000  3.0000000000000000  0.0000000000000000
H  5.5000000000000000  2.5000000000000000  1.5000000000000000
H  6.0000000000000000  3.0000000000000000  1.0000000000000000
H  5.5000000000000000  2.5000000000000000  2.5000000000000000
H  6.0000000000000000  3.0000000000000000  2.0000000000000000
H  5.5000000000000000  2.5000000000000000  3.5000000000000000
H  6.0000000000000000  3.0000000000000000  3.0000000000000000
H  5.5000000000000000  2.5000000000000000  4.5000000000000000
H  6.0000000000000000  3.0000000000000000  4.0000000000000000
H  5.5000000000000000  2.5000000000000000  5.5000000000000000
H  6.0000000000000000  3.0000000000000000  5.0000000000000000
H  5.5000000000000000  3.5000000000000000  0.5000000000000000
H  6.0000000000000000  4.0000000000000000  0.0000000000000000
H  5.5000000000000000  3.5000000000000000  1.5000000000000000
H  6.0000000000000000  4.0000000000000000  1.0000000000000000
H  5.5000000000000000  3.5000000000000000  2.5000000000000000
H  6.0000000000000000  4.0000000000000000  2.0000000000000000
H  5.5000000000000000  3.5000000000000000  3.5000000000000000
H  6.0000000000000000  4.0000000000000000  3.0000000000000000
H  5.5000000000000000  3.5000000000000000  4.5000000000000000
H  6.0000000000000000  4.0000000000000000  4.0000000000000000
H  5.5000000000000000  3.5000000000000000  5.5000000000000000
H  6.0000000000000000  4.0000000000000000  5.0000000000000000
H  5.5000000000000000  4.5000000000000000  0.5000000000000000
H  6.0000000000000000  5.0000000000000000  0.0000000000000000
H  5.5000000000000000  4.5000000000000000  1.5000000000000000
H  6.0000000000000000  5.0000000000000000  1.0000000000000000
H  5.5000000000000000  4.5000000000000000  2.5000000000000000
H  6.0000000000000000  5.0000000000000000  2.0000000000000000
H  5.5000000000000000  4.5000000000000000  3.5000000000000000
H  6.0000000000000000  5.0000000000000000  3.0000000000000000
H  5.5000000000000000  4.5000000000000000  4.5000000000000000
H  6.0000000000000000  5.0000000000000000  4.0000000000000000
H  5.5000000000000000  4.5000000000000000  5.5000000000000000
H  6.0000000000000000  5.0000000000000000  5.0000000000000000
H  5.5000000000000000  5.5000000000000000  0.5000000000000000
H  6.0000000000000000  6.0000000000000000  0.0000000000000000
H  5.5000000000000000  5.5000000000000000  1.5000000000000000
H  6.0000000000000000  6.0000000000000000  1.0000000000000000
H  5.5000000000000000  5.5000000000000000  2.5000000000000000
H  6.0000000000000000  6.0000000000000000  2.0000000000000000
H  5.5000000000000000  5.5000000000000000  3.5000000000000000
H  6.0000000000000000  6.0000000000000000  3.0000000000000000
H  5.5000000000000000  5.5000000000000000  4.5000000000000000
H  6.0000000000000000  6.0000000000000000  4.0000000000000000
H  5.5000000000000000  5.5000000000000000  5.5000000000000000
H  6.0000000000000000  6.0000000000000000  5.0000000000000000
